@<TRIPOS>MOLECULE
RES
37 39 1 0 1
SMALL
NO_CHARGES
@<TRIPOS>CRYSIN
    9.8510    10.2351    20.1594    90.0000    90.0000    90.0000  1  1
@<TRIPOS>ATOM
       1 C            0.2404    -0.8324     0.8626 C             1 RES     
       2 C           -0.1273    -1.4670    -0.3286 C             1 RES     
       3 C           -0.4484    -0.7059    -1.4570 C             1 RES     
       4 C           -0.4020     0.6904    -1.3952 C             1 RES     
       5 C           -0.0345     1.3268    -0.2048 C             1 RES     
       6 C            0.2876     0.5683     0.9271 C             1 RES     
       7 O            0.6521     1.2133     2.1067 O             1 RES     
       8 H            0.4877    -1.4277     1.7323 H             1 RES     
       9 H           -0.1633    -2.5476    -0.3770 H             1 RES     
      10 H           -0.6506     1.2790    -2.2687 H             1 RES     
      11 H            0.0000     2.4079    -0.1616 H             1 RES     
      12 C            0.9526     0.2064     5.7545 C             1 RES     
      13 C            0.6242     0.9234     4.5994 C             1 RES     
      14 C            1.0055     0.4425     3.3441 C             1 RES     
      15 C            1.7160    -0.7562     3.2413 C             1 RES     
      16 C            2.0468    -1.4769     4.3936 C             1 RES     
      17 C            1.6664    -0.9995     5.6611 C             1 RES     
      18 C            2.0046    -1.7428     6.8886 C             1 RES     
      19 O            2.6439    -2.8272     6.8372 O             1 RES     
      20 H            0.6496     0.5926     6.7202 H             1 RES     
      21 H            0.0739     1.8521     4.6778 H             1 RES     
      22 H            2.0108    -1.1277     2.2684 H             1 RES     
      23 H            2.5976    -2.4037     4.2932 H             1 RES     
      24 C            0.8032    -0.2154    10.7215 C             1 RES     
      25 C           -0.0000     0.0000     9.5970 C             1 RES     
      26 C            0.3911    -0.4969     8.3508 C             1 RES     
      27 C            1.5863    -1.2102     8.2270 C             1 RES     
      28 C            2.3929    -1.4282     9.3487 C             1 RES     
      29 C            2.0061    -0.9311    10.6066 C             1 RES     
      30 C            2.8411    -1.1493    11.8020 C             1 RES     
      31 O            3.9251    -1.7872    11.7308 O             1 RES     
      32 H            0.4860     0.1764    11.6803 H             1 RES     
      33 H           -0.9259     0.5523     9.6917 H             1 RES     
      34 H           -0.2316    -0.3294     7.4817 H             1 RES     
      35 H            3.3154    -1.9832     9.2321 H             1 RES     
      36 H           -0.7358    -1.2029    -2.3883 H             1 RES     
      37 H            2.5223    -0.7544    12.7712 H             1 RES     
@<TRIPOS>BOND
       1        2        1 1
       2        6        1 1
       3        8        1 1
       4        3        2 1
       5        9        2 1
       6        5        6 1
       7        7        6 1
       8        4        3 1
       9       36        3 1
      10        5        4 1
      11       10        4 1
      12       11        5 1
      13       14        7 1
      14       13       14 1
      15       15       14 1
      16       13       12 1
      17       17       12 1
      18       20       12 1
      19       21       13 1
      20       16       17 1
      21       18       17 1
      22       16       15 1
      23       22       15 1
      24       23       16 1
      25       19       18 1
      26       27       18 1
      27       26       27 1
      28       28       27 1
      29       25       24 1
      30       29       24 1
      31       32       24 1
      32       26       25 1
      33       33       25 1
      34       28       29 1
      35       30       29 1
      36       34       26 1
      37       35       28 1
      38       31       30 1
      39       37       30 1
@<TRIPOS>SUBSTRUCTURE
       1 RES             1 RESIDUE    0 **** ROOT      0
